T42/data/state_estimation/PT_Dx_01_2050_Su_Bd/PT_Dx_01_2050_Su_Bd_t10.csv
bus,vm_pu,va_degree,p_mw,q_mvar
1,0.952526,-0.112157,-13.717433,-5.421430
2,1.000182,0.000589,32.108269,14.801050
3,0.952223,-0.112645,-0.000063,0.000005
4,0.952002,-0.111813,0.000004,0.000031
5,0.953190,-0.111894,0.000027,-0.000038
6,0.951950,-0.112749,-0.038262,-0.019547
7,0.950653,-0.113429,-0.074629,-0.038281
8,0.951975,-0.113033,-0.032801,-0.016805
9,0.950811,-0.112512,-0.872798,-0.447089
10,0.951475,-0.112651,-3.655837,-1.872870
11,0.950186,-0.113691,-0.502642,-0.257446
12,0.945845,-0.116804,-0.015882,-0.008105
13,0.950487,-0.112443,-0.053572,-0.021125
14,0.951483,-0.112259,-1.298461,-0.616184
15,0.945328,-0.116866,-0.016969,-0.008604
16,0.952377,-0.112129,-0.004577,-0.002382
17,0.951105,-0.112523,-0.024215,-0.012433
18,0.950407,-0.112823,-0.023021,-0.011823
19,0.945233,-0.116521,-0.094681,-0.048463
20,0.951123,-0.113847,-1.320830,-0.627626
21,0.946826,-0.116519,-0.004206,-0.001630
22,0.951476,-0.112952,-0.004145,-0.001626
23,0.947359,-0.116236,-0.234845,-0.120298
24,0.946446,-0.116162,-0.071597,-0.028291
25,0.946893,-0.115613,-0.009083,-0.003500
26,0.950543,-0.113048,-0.054217,-0.027844
27,0.950804,-0.111979,-0.000129,-0.000009
28,0.945902,-0.116903,-0.107890,-0.055221
29,0.951415,-0.112942,-0.074245,-0.038049
30,0.951217,-0.112102,-0.185562,-0.095006
31,0.951063,-0.112917,-0.047293,-0.024172
32,0.952649,-0.112345,-0.161256,-0.082664
33,0.950578,-0.113133,-0.521605,-0.218200
34,0.945600,-0.116538,-0.022714,-0.011671
35,0.946561,-0.115943,-0.061033,-0.031393
36,0.949657,-0.113528,-0.014115,-0.007207
37,0.951718,-0.112958,-0.009080,-0.003659
38,0.946745,-0.116870,-0.055247,-0.028314
39,0.949879,-0.113051,-0.143935,-0.073688
40,0.946907,-0.116576,-0.011695,-0.004597
41,0.945441,-0.116215,-0.027507,-0.010981
42,0.946366,-0.116556,-0.047005,-0.024139
43,0.947040,-0.115847,-0.090378,-0.046340
44,0.946182,-0.116230,-0.048998,-0.025149
45,0.946208,-0.115954,-0.002298,-0.000845
46,0.950482,-0.113852,-0.127088,-0.065068
47,0.946264,-0.116335,-0.348675,-0.178705
48,0.951226,-0.112857,-0.000493,-0.000228
49,0.950785,-0.113082,-0.027525,-0.014175
50,0.951833,-0.112982,-0.001326,-0.000640
51,0.951980,-0.112957,-0.024914,-0.009876
52,0.950287,-0.112639,-0.023598,-0.012119
53,0.946237,-0.116414,-0.479990,-0.245892
54,0.949908,-0.112400,-0.038408,-0.015149
55,0.952710,-0.112502,-0.055032,-0.028167
56,0.950102,-0.112819,-0.055332,-0.028341
57,0.950762,-0.112750,-0.057301,-0.029329
58,0.946784,-0.116342,-0.016483,-0.008412
59,0.945860,-0.117268,-0.041444,-0.016420
60,0.946038,-0.115618,-0.013022,-0.005175
61,0.950955,-0.111621,-1.088558,-0.508675
62,0.951944,-0.112215,-0.017501,-0.008981
63,0.945830,-0.116846,-0.000786,-0.000477
64,0.950492,-0.112611,-0.403943,-0.206992
65,0.950406,-0.112202,-0.750286,-0.335436
66,0.951416,-0.113268,-0.518724,-0.265749
67,0.951090,-0.112367,-0.048831,-0.024958
68,0.947108,-0.116385,-0.180094,-0.092284
69,0.950616,-0.113191,-0.021289,-0.008488
70,0.950235,-0.113440,-0.019413,-0.010002
71,0.945865,-0.116406,-0.037440,-0.019137
72,0.946166,-0.115726,-0.042439,-0.021740
73,0.947082,-0.116862,-0.009844,-0.003917
74,0.946536,-0.116802,-0.011226,-0.005742
75,0.947213,-0.115424,-0.127762,-0.065563
76,0.951308,-0.111813,-0.062854,-0.032288
77,0.951754,-0.112161,-0.035483,-0.018188
78,0.950980,-0.112370,-0.214100,-0.109721
79,0.952148,-0.112890,-0.164740,-0.084482
80,0.947538,-0.115099,0.000003,-0.000048
81,0.946684,-0.116098,-0.000848,-0.000497
82,0.950947,-0.112826,-0.019237,-0.009743
83,0.951600,-0.112308,-0.057320,-0.029371
84,0.950891,-0.113023,-0.020066,-0.010370
85,0.945957,-0.116503,-0.014293,-0.007293
86,0.951655,-0.112543,-0.031772,-0.012628
87,0.950917,-0.111858,-0.078553,-0.040244
88,0.952418,-0.112284,-0.064484,-0.033064
89,0.950977,-0.111913,-0.319275,-0.163652
90,0.949893,-0.113494,-0.080290,-0.041204
91,0.947303,-0.116260,-0.052958,-0.027179
92,0.946836,-0.116687,-0.041820,-0.021487
93,0.950597,-0.112744,-0.048245,-0.024767
94,0.946610,-0.116634,-0.134956,-0.069173
95,0.952440,-0.112260,-0.271205,-0.139003
96,0.945649,-0.116174,-0.040307,-0.015874
97,0.946166,-0.116975,-0.128323,-0.065675
98,0.946415,-0.117001,-0.069644,-0.027507
99,0.951249,-0.112553,-0.968297,-0.447026
100,0.951597,-0.113474,-0.023708,-0.012151
101,0.951895,-0.112866,-0.094193,-0.037238
102,0.951178,-0.113090,-0.339551,-0.124876
103,0.951369,-0.113072,-0.031438,-0.012436
104,0.945814,-0.116280,-0.174282,-0.068849
105,0.950468,-0.112187,-0.001835,-0.000975
106,0.951089,-0.112570,-0.000044,0.000055
107,0.949983,-0.112665,-0.000002,-0.000003
108,0.951924,-0.111816,0.000068,-0.000036
109,0.951171,-0.112106,0.000012,-0.000121
110,0.947384,-0.117357,0.000071,-0.000022
111,0.945420,-0.116738,-0.000013,-0.000025
112,0.951307,-0.113407,-0.000028,-0.000022
113,0.950667,-0.112119,0.000004,-0.000077
114,0.947119,-0.116848,-0.000064,0.000004
115,0.945291,-0.116428,-0.000159,-0.000015
116,0.950559,-0.112660,0.000021,0.000071
117,0.946986,-0.115565,0.000032,-0.000020
118,0.951290,-0.113179,-0.000010,-0.000044
119,0.950252,-0.113808,-0.000123,-0.000064
120,0.950558,-0.112685,-0.000039,-0.000087
121,0.952124,-0.113661,-0.000000,0.000073
122,0.950691,-0.113885,-0.000046,0.000096
123,0.949912,-0.113151,-0.000026,-0.000074
124,0.949956,-0.113497,0.000041,-0.000015
125,0.950646,-0.113671,0.000001,-0.000024
126,0.946192,-0.116346,0.000036,-0.000096
127,0.950134,-0.113356,-0.000004,-0.000047
128,0.947454,-0.117395,0.000076,0.000015
129,0.946224,-0.116002,-0.000012,-0.000076
130,0.946703,-0.115495,0.000039,-0.000017
131,0.952560,-0.113579,0.000034,-0.000009
132,0.945922,-0.115637,-0.000012,-0.000099
133,0.950856,-0.112402,-0.000059,-0.000006
134,0.953200,-0.112075,-0.000029,-0.000041
135,0.946259,-0.116546,0.000081,0.000019
136,0.946824,-0.116390,-0.000018,0.000003
137,0.945753,-0.116126,-0.000014,-0.000059
138,0.945814,-0.116595,-0.000026,-0.000120
139,0.946149,-0.116869,0.000046,-0.000027
140,0.950453,-0.113216,0.000004,0.000042
141,0.947008,-0.116163,-0.000024,-0.000042
142,0.946255,-0.116589,0.000029,0.000045
143,0.947046,-0.116006,0.000108,0.000050
144,0.951681,-0.112113,0.000062,-0.000006
145,0.952465,-0.112061,-0.000028,-0.000038
146,0.950016,-0.112815,-0.000027,0.000039
147,0.951417,-0.113094,0.000026,0.000013
148,0.950718,-0.113645,-0.000032,0.000008
149,0.945947,-0.116682,0.000014,0.000035
150,0.947335,-0.115106,-0.000057,0.000023
151,0.952170,-0.112399,-0.000112,0.000065
152,0.951459,-0.112895,-0.000069,-0.000005
153,0.950013,-0.112073,0.000059,0.000080
154,0.950684,-0.113440,0.000038,-0.000068
155,0.946062,-0.116513,-0.000053,0.000017
156,0.950785,-0.113300,0.000079,-0.000068
157,0.952469,-0.113363,0.000003,-0.000040
158,0.950467,-0.113045,0.000007,-0.000023
159,0.946825,-0.116135,-0.000031,0.000040
160,0.952508,-0.112496,0.000065,0.000062
161,0.949691,-0.113180,-0.000011,-0.000039
162,0.946607,-0.115706,-0.000030,-0.000003
163,0.953068,-0.112003,0.000017,0.000106
164,0.950135,-0.112833,0.000092,0.000033
165,0.952150,-0.112927,0.000022,-0.000010
166,0.952392,-0.112485,0.000014,0.000002
167,0.945315,-0.116908,0.000019,0.000047
168,0.950005,-0.113973,-0.000028,0.000075
169,0.951990,-0.112196,-0.000045,-0.000056
170,0.950373,-0.114394,0.000010,0.000013
171,0.946519,-0.116714,0.000002,-0.000029
172,0.946628,-0.115645,-0.000016,-0.000096
173,0.950564,-0.113258,-0.000016,0.000014
174,0.946683,-0.115985,-0.000023,0.000039
175,0.946232,-0.116502,0.000028,-0.000086
176,0.950907,-0.113266,-0.000068,-0.000061
177,0.944887,-0.116884,0.000037,-0.000071
178,0.946450,-0.115261,0.000073,0.000064
179,0.951903,-0.113098,0.000032,-0.000027
180,0.951128,-0.112845,-0.000016,0.000062
181,0.946264,-0.117431,0.000007,-0.000063
182,0.947235,-0.116869,-0.000005,0.000084
183,0.950742,-0.112935,0.000006,0.000012
184,0.950634,-0.112526,0.000028,-0.000026
185,0.950448,-0.113220,0.000099,-0.000005
186,0.945881,-0.115479,-0.000011,0.000023
187,0.950878,-0.112734,-0.000074,0.000017
188,0.946033,-0.116768,0.000011,0.000020
189,0.952350,-0.113031,0.000022,-0.000066
190,0.947173,-0.116890,-0.000109,0.000024
191,0.952854,-0.112804,0.000072,0.000019
